CoresoETL/UCT_Source/20221102_1230_FO3_SI1.uct
##C 2007.05.01
ENTSO-E SUBGROUP 'NETWORK MODELS & FORECAST TOOLS'
TSO:  ELES
##N
##ZSI
LBERIC11 LBERIC11     0 0            0.0     0.0     0.0     0.0     0.0     0.0     0.0     0.0   0.0     0.0     0.0         
LBERIC12 LBERIC12     0 2  402.0     0.0     0.0     0.0   117.1     0.0     0.0   300.0  -300.0   0.0     0.0     0.0         
LBERIC21 LBERIC21     0 0           83.1    41.7     0.0     0.0     0.0     0.0     0.0     0.0   0.0     0.0     0.0         
LCIRKO11 LCIRKO11     0 0          155.0    33.2     0.0     0.0     0.0     0.0     0.0     0.0   0.0     0.0     0.0         
LCIRKO12 LCIRKO12     0 0            0.0     0.0     0.0     0.0     0.0     0.0     0.0     0.0   0.0     0.0     0.0         
LDIVAC11 LDIVAC11     0 0            0.0     0.0     0.0     0.0     0.0     0.0     0.0     0.0   0.0     0.0     0.0         
LDIVAC12 LDIVAC12     0 0            0.0     0.0     0.0     0.0     0.0     0.0     0.0     0.0   0.0     0.0     0.0         
LDIVAC21 LDIVAC21     0 0            0.0     0.0     0.0     0.0     0.0     0.0     0.0     0.0   0.0     0.0     0.0         
LDIVAC22 LDIVAC22     0 0            0.0     0.0     0.0     0.0     0.0     0.0     0.0     0.0   0.0     0.0     0.0         
LDIVAC51 LDIVAC51     0 0          199.2     6.8     0.0     0.0     0.0     0.0     0.0     0.0   0.0     0.0     0.0         
LKLECE21 LKLECE21     0 0           68.6    26.0     0.0     0.0     0.0     0.0     0.0     0.0   0.0     0.0     0.0         
LKRSKO11 LKRSKO11     0 3  401.2   120.3     8.0    33.8    20.8     0.0  -705.0   300.0  -300.0   0.0     0.0     0.0         N
LKRSKO12 LKRSKO12     0 0            0.0     0.0     0.0     0.0     0.0     0.0     0.0     0.0   0.0     0.0     0.0         
LMARIB11 LMARIB11     0 0          217.9    38.5     0.0     0.0     0.0     0.0     0.0     0.0   0.0     0.0     0.0         
LMARIB12 LMARIB12     0 0            0.0     0.0     0.0     0.0     0.0     0.0     0.0     0.0   0.0     0.0     0.0         
LOKROG11 LOKROG11     0 0          180.1    20.8     0.0     0.0     0.0     0.0     0.0     0.0   0.0     0.0     0.0         
LPODLO11 LPODLOG11    0 0          107.2     3.0     0.0     0.0     0.0     0.0     0.0     0.0   0.0     0.0     0.0         L
LPODLO21 LPODLOG21    0 0          117.3    52.7     0.0     0.0     0.0  -315.0    25.0  -200.0   0.0     0.0     0.0         L
LPODLO22 LPODLOG22    0 0            0.0     0.0     0.0     0.0     0.0     0.0     0.0     0.0   0.0     0.0     0.0         
LSOSTA11 LSOSTA11     0 0            0.0     0.0     0.0     0.0     0.0     0.0     0.0     0.0   0.0     0.0     0.0         
LSOSTA16 LSOSTA16     0 2  399.7     0.0     0.0     0.2    27.7     0.0  -553.0   400.0  -300.0   0.0     0.0     0.0         N
##ZXX
XHE_CI12 HEVIZ        0 0         -130.3    -0.1     0.0     0.0     0.0     0.0     0.0     0.0   0.0     0.0     0.0         
XKA_MA11 KAINACHTAL   0 0         -513.7     0.0     0.0     0.0     0.0     0.0     0.0     0.0   0.0     0.0     0.0         
XKA_MA12 KAINACHTAL   0 0         -516.0     0.0     0.0     0.0     0.0     0.0     0.0     0.0   0.0     0.0     0.0         
XME_DI11 MELINA       0 0         -138.7   -68.0     0.0     0.0     0.0     0.0     0.0     0.0   0.0     0.0     0.0         
XOB_PO21 OBERSIELACH  0 0         -182.1     0.0     0.0     0.0     0.0     0.0     0.0     0.0   0.0     0.0     0.0         
XPA_DI21 PADRICIANO   0 0            0.0     0.0     0.0     0.0     0.0     0.0     0.0     0.0   0.0     0.0     0.0         
XPE_DI21 PEHLIN       0 0           -1.7    39.9     0.0     0.0     0.0     0.0     0.0     0.0   0.0     0.0     0.0         
XRE_DI11 REDIPUGLIA   0 2  407.0    22.4    -0.1     0.0     0.0     0.0     0.0   999.0  -999.0   0.0     0.0     0.0         
XTU_KR11 TUMBRI       0 0          139.9     0.0     0.0     0.0     0.0     0.0     0.0     0.0   0.0     0.0     0.0         
XTU_KR12 TUMBRI       0 0          133.9     0.0     0.0     0.0     0.0     0.0     0.0     0.0   0.0     0.0     0.0         
XZE_CI11 ZERJAVI400   0 0          -63.4    -0.1     0.0     0.0     0.0     0.0     0.0     0.0   0.0     0.0     0.0         
XZE_PO21 ZERJAVINEC   0 0          -47.5     1.0     0.0     0.0     0.0     0.0     0.0     0.0   0.0     0.0     0.0         
##L
LBERIC11 LBERIC12 1 2   0.00   0.00      0.0   1920 BER400 BBC 1
LBERIC21 LKLECE21 1 0   0.78   5.27     38.0    960 BER-KLE220 1
LBERIC21 LKLECE21 2 1   4.00  53.50    120.0    640 BER-KLE220EQ
LBERIC11 LKRSKO11 1 0   2.15  22.95    245.9   1920 BER-KRS400 1
LBERIC11 LKRSKO11 2 0   2.15  22.95    245.9   1920 BER-KRS400 2
LBERIC11 LPODLO11 1 0   1.53  16.35    177.5   1920 BER-POD400 1
LCIRKO11 LCIRKO12 1 2   0.00   0.00      0.0   1920 CIR400 BBC 1
LCIRKO11 XHE_CI12 1 0 2.0246 22.964 288.9506   1600 CIR-HEV400 1
LCIRKO12 LKRSKO11 1 0 1.7669 18.454  205.259   1920 CIR-KRS400 1
LMARIB11 LCIRKO11 1 0 0.5667 5.9192  65.8349   1920 CIR-MAR400 1
LMARIB12 LCIRKO12 1 0 0.5667 5.9192  65.8349   1920 CIR-MAR400 2
LPODLO11 LCIRKO11 1 0 1.5912 17.116   18.963   1920 CIR-POD400 1
LCIRKO12 XZE_CI11 1 0  2.403 17.873 221.9371   1600 CIR-ZER400 1
LDIVAC22 LDIVAC21 1 2   0.00   0.00      0.0    960 DIV220 BBC 1
LDIVAC11 LDIVAC12 2 7   0.00   0.00      0.0   2880 DIV400 BBC 1
LDIVAC11 LBERIC11 1 0   2.33  24.86    269.9   1920 DIV-BER400 1
LDIVAC21 LKLECE21 1 0   3.93  27.31    186.0    960 DIV-KLE220 1
LDIVAC11 XME_DI11 1 0 1.0205 10.863  117.734   1920 DIV-MEL400 1
LDIVAC22 XPA_DI21 1 8 0.3405  2.389   16.022    960 DIV-PAD220 1
LDIVAC22 XPE_DI21 1 0  1.575 11.035    74.11    960 DIV-PEH220 1
LDIVAC12 XRE_DI11 1 0 0.6053  7.145    96.75   2700 DIV-RED400 1
LKRSKO11 LKRSKO12 1 2   0.00   0.00      0.0   2880 KRS400 BBC 1
LKRSKO11 XTU_KR11 1 0 0.7164  7.574   87.935   1920 KRS-TUM400 1
LKRSKO11 XTU_KR12 1 0 0.7164  7.574   87.935   1920 KRS-TUM400 2
LMARIB11 LMARIB12 1 2   0.00   0.00      0.0   1920 MAR400 BBC 1
LMARIB11 XKA_MA11 1 0  0.718 9.0285   105.87   1920 MAR-KAI400 1
LMARIB12 XKA_MA12 1 0  0.718 9.0285   105.87   1920 MAR-KAI400 2
LOKROG11 LBERIC11 1 0   0.93   9.89    152.9   1600 OKR-BER400 1
LOKROG11 LBERIC11 2 0   0.93   9.89    152.9   1600 OKR-BER400 2
LPODLO21 LPODLO22 1 2   0.00   0.00      0.0    960 POD220 BBC 1
LPODLO21 LBERIC21 1 0   3.74  25.86    178.1    960 POD-BER220 1
LBERIC21 LPODLO21 1 1   3.38  56.46   132.82    640 POD-BER220EQ
LPODLO22 XOB_PO21 1 0  1.991 13.555   78.556    960 POD-OBE220 1
LPODLO11 LSOSTA11 1 0 0.4017 4.2249    45.88   1680 POD-SOS400 1
LPODLO22 XZE_PO21 1 0   4.29  25.01    167.3    780 POD-ZER220 1
LSOSTA11 LSOSTA16 1 2   0.00   0.00      0.0   9999 SOS400 BBC 6
##T
LBERIC21 LBERIC11 1 0 231.0 400.0   400 0.1868 15.754 -14.0161 2.5299   1000 BER400 TR421
LDIVAC51 LDIVAC21 1 0 115.0 220.0   150 0.2998 12.031 -62.7778  9.656    753 DIV220 TR211
LDIVAC51 LDIVAC21 2 0 115.0 220.0   150 0.3703  11.65 -62.7778  9.656    753 DIV220 TR212
LDIVAC51 LDIVAC11 1 0 115.0 400.0   300 0.0749 5.8891 -10.9223  8.121   1506 DIV400 TR411
LDIVAC51 LDIVAC11 2 0 115.0 400.0   300 0.0793 5.8758 -7.79993 8.2344   1506 DIV400 TR412
LDIVAC11 LDIVAC12 1 0 400.0 400.0  1200   0.20  24.49   -5.166  0.938   1732 DIV400 TR441
LPODLO21 LPODLO11 1 0 231.0 400.0   400 0.1734 15.807 -9.42377 2.4812   1000 POD400 TR421
##R
LDIVAC11 LDIVAC12 1     0  0   0     0  2.27    90 32   1     0 SYMM
LDIVAC51 LDIVAC21 2  1.25 12  -5     0                          
LDIVAC51 LDIVAC21 1  1.25 12  -5     0                          
LDIVAC51 LDIVAC11 2  1.25 12  -1     0                          
LDIVAC51 LDIVAC11 1  1.25 12  -1     0                          
##E
SI AT -1211.8
SI HR    22.5
SI IT    22.4
SI HU  -130.3
